<?xml version="1.0" encoding="UTF-8"?>

<!-- generated on 2024-03-24 20:42:22.722301 by randomTrips.py v1_19_0+0000-baa66a0f364
<configuration>
    <net-file value="osm.net.xml.gz"/>
    <output-trip-file value="osm.passenger.trips.xml"/>
    <route-file value="osm.passenger.rou.xml"/>
    <prefix value="veh"/>
    <trip-attributes value="departLane=&quot;best&quot;"/>
    <fringe-start-attributes value="departSpeed=&quot;max&quot;"/>
    <vehicle-class value="passenger"/>
    <lanes value="True"/>
    <fringe-factor value="20"/>
    <allow-fringe.min-length value="1000.0"/>
    <via-edge-types value="highway.motorway,highway.motorway_link,highway.trunk_link,highway.primary_link,highway.secondary_link,highway.tertiary_link"/>
    <min-distance value="300.0"/>
    <min-distance.fringe value="10.0"/>
    <remove-loops value="True"/>
    <validate value="True"/>
    <insertion-density value="200.0"/>
</configuration>
-->

<routes xmlns:xsi="http://www.w3.org/2001/XMLSchema-instance" xsi:noNamespaceSchemaLocation="http://sumo.dlr.de/xsd/routes_file.xsd">
    <vType id="veh_passenger" vClass="passenger"/>
    <trip id="veh0" depart="0.00" from="314486958#0" to="314486954" departLane="best" type="veh_passenger" departSpeed="max"/>
    <trip id="veh1" depart="2.91" from="314486958#0" to="1056048099" departLane="best" type="veh_passenger" departSpeed="max"/>
    <trip id="veh2" depart="5.81" from="1091118287" to="1130867319" departLane="best" type="veh_passenger" departSpeed="max"/>
    <trip id="veh3" depart="8.72" from="314486951#0" to="314486954" departLane="best" type="veh_passenger" departSpeed="max"/>
    <trip id="veh4" depart="11.62" from="314486958#0" to="1056048099" departLane="best" type="veh_passenger" departSpeed="max"/>
    <trip id="veh5" depart="14.53" from="314486958#0" to="314486954" departLane="best" type="veh_passenger" departSpeed="max"/>
    <trip id="veh6" depart="17.44" from="156926070#0" to="1056048099" departLane="best" type="veh_passenger" departSpeed="max"/>
    <trip id="veh7" depart="20.34" from="314486958#0" to="156875202#0" departLane="best" type="veh_passenger" departSpeed="max"/>
    <trip id="veh8" depart="23.25" from="1091118287" to="1056048099" departLane="best" type="veh_passenger" departSpeed="max"/>
    <trip id="veh9" depart="26.15" from="314486958#0" to="314486954" departLane="best" type="veh_passenger" departSpeed="max"/>
    <trip id="veh10" depart="29.06" from="314486958#0" to="314486954" departLane="best" type="veh_passenger" departSpeed="max"/>
    <trip id="veh11" depart="31.97" from="314486951#0" to="777745825" departLane="best" type="veh_passenger" departSpeed="max"/>
    <trip id="veh12" depart="34.87" from="156926070#0" to="314486954" departLane="best" type="veh_passenger" departSpeed="max"/>
    <trip id="veh13" depart="37.78" from="314486958#0" to="314486954" departLane="best" type="veh_passenger" departSpeed="max"/>
    <trip id="veh14" depart="40.69" from="314486958#0" to="314486954" departLane="best" type="veh_passenger" departSpeed="max"/>
    <trip id="veh15" depart="43.59" from="314486958#0" to="1056048099" departLane="best" type="veh_passenger" departSpeed="max"/>
    <trip id="veh16" depart="46.50" from="1130867319" to="156875202#0" departLane="best" type="veh_passenger"/>
    <trip id="veh17" depart="49.40" from="1091118287" to="156875202#0" departLane="best" type="veh_passenger" departSpeed="max"/>
    <trip id="veh18" depart="52.31" from="1091118287" to="156875202#0" departLane="best" type="veh_passenger" departSpeed="max"/>
    <trip id="veh19" depart="55.22" from="314486951#0" to="156875202#0" departLane="best" type="veh_passenger" departSpeed="max"/>
    <trip id="veh20" depart="58.12" from="156926070#0" to="125871022#0" departLane="best" type="veh_passenger" departSpeed="max"/>
    <trip id="veh21" depart="61.03" from="156926070#0" to="777745825" departLane="best" type="veh_passenger" departSpeed="max"/>
    <trip id="veh22" depart="63.93" from="314486951#0" to="314486954" departLane="best" type="veh_passenger" departSpeed="max"/>
    <trip id="veh23" depart="66.84" from="1091118287" to="156875202#0" departLane="best" type="veh_passenger" departSpeed="max"/>
    <trip id="veh24" depart="69.75" from="77882930#0" to="314486954" departLane="best" type="veh_passenger"/>
    <trip id="veh25" depart="72.65" from="314486951#0" to="314486954" departLane="best" type="veh_passenger" departSpeed="max"/>
    <trip id="veh26" depart="75.56" from="1091118287" to="777745825" departLane="best" type="veh_passenger" departSpeed="max"/>
    <trip id="veh27" depart="78.46" from="314486958#0" to="156875202#0" departLane="best" type="veh_passenger" departSpeed="max"/>
    <trip id="veh28" depart="81.37" from="314486951#0" to="156875202#0" departLane="best" type="veh_passenger" departSpeed="max"/>
    <trip id="veh29" depart="84.28" from="314486951#0" to="156875202#0" departLane="best" type="veh_passenger" departSpeed="max"/>
    <trip id="veh30" depart="87.18" from="314486951#0" to="777745825" departLane="best" type="veh_passenger" departSpeed="max"/>
    <trip id="veh31" depart="90.09" from="29693692#0" to="156875202#0" departLane="best" type="veh_passenger"/>
    <trip id="veh32" depart="93.00" from="77882930#0" to="314486954" departLane="best" type="veh_passenger"/>
    <trip id="veh33" depart="95.90" from="1091118287" to="1056048099" departLane="best" type="veh_passenger" departSpeed="max"/>
    <trip id="veh34" depart="98.81" from="1091118287" to="156875202#0" departLane="best" type="veh_passenger" departSpeed="max"/>
    <trip id="veh35" depart="101.71" from="77882930#0" to="314486954" departLane="best" type="veh_passenger"/>
    <trip id="veh36" depart="104.62" from="314486958#0" to="777745825" departLane="best" type="veh_passenger" departSpeed="max"/>
    <trip id="veh37" depart="107.53" from="156926070#0" to="314486954" departLane="best" type="veh_passenger" departSpeed="max"/>
    <trip id="veh38" depart="110.43" from="1091118287" to="314486949#0" departLane="best" type="veh_passenger" departSpeed="max"/>
    <trip id="veh39" depart="113.34" from="314486951#0" to="777745825" departLane="best" type="veh_passenger" departSpeed="max"/>
    <trip id="veh40" depart="116.24" from="314486958#0" to="156875202#0" departLane="best" type="veh_passenger" departSpeed="max"/>
    <trip id="veh41" depart="119.15" from="314486958#0" to="777745825" departLane="best" type="veh_passenger" departSpeed="max"/>
    <trip id="veh42" depart="122.06" from="156926070#0" to="314486954" departLane="best" type="veh_passenger" departSpeed="max"/>
    <trip id="veh43" depart="124.96" from="314486958#0" to="314486954" departLane="best" type="veh_passenger" departSpeed="max"/>
    <trip id="veh44" depart="127.87" from="314486958#0" to="314486954" departLane="best" type="veh_passenger" departSpeed="max"/>
    <trip id="veh45" depart="130.77" from="-1130867319" to="156875202#0" departLane="best" type="veh_passenger"/>
    <trip id="veh46" depart="133.68" from="1091118287" to="777745825" departLane="best" type="veh_passenger" departSpeed="max"/>
    <trip id="veh47" depart="136.59" from="314486958#0" to="777745825" departLane="best" type="veh_passenger" departSpeed="max"/>
    <trip id="veh48" depart="139.49" from="156926070#0" to="1056048099" departLane="best" type="veh_passenger" departSpeed="max"/>
    <trip id="veh49" depart="142.40" from="314486958#0" to="777745825" departLane="best" type="veh_passenger" departSpeed="max"/>
    <trip id="veh50" depart="145.30" from="1091118287" to="314486951#1" departLane="best" type="veh_passenger" departSpeed="max"/>
    <trip id="veh51" depart="148.21" from="314486958#0" to="1056048099" departLane="best" type="veh_passenger" departSpeed="max"/>
    <trip id="veh52" depart="151.12" from="314486951#0" to="314486954" departLane="best" type="veh_passenger" departSpeed="max"/>
    <trip id="veh53" depart="154.02" from="156926070#0" to="777745825" departLane="best" type="veh_passenger" departSpeed="max"/>
    <trip id="veh54" depart="156.93" from="314486951#0" to="314486954" departLane="best" type="veh_passenger" departSpeed="max"/>
    <trip id="veh55" depart="159.84" from="1091118287" to="156875202#0" departLane="best" type="veh_passenger" departSpeed="max"/>
    <trip id="veh56" depart="162.74" from="77882930#0" to="314486954" departLane="best" type="veh_passenger"/>
    <trip id="veh57" depart="165.65" from="314486950#0" to="314486954" departLane="best" type="veh_passenger"/>
    <trip id="veh58" depart="168.55" from="1091118287" to="156875202#0" departLane="best" type="veh_passenger" departSpeed="max"/>
    <trip id="veh59" depart="171.46" from="156926070#0" to="314486954" departLane="best" type="veh_passenger" departSpeed="max"/>
    <trip id="veh60" depart="174.37" from="125871020" to="156875202#0" departLane="best" type="veh_passenger"/>
    <trip id="veh61" depart="177.27" from="125871020" to="777745825" departLane="best" type="veh_passenger"/>
    <trip id="veh62" depart="180.18" from="314486958#0" to="1056048099" departLane="best" type="veh_passenger" departSpeed="max"/>
    <trip id="veh63" depart="183.08" from="125871022#0" to="314486954" departLane="best" type="veh_passenger"/>
    <trip id="veh64" depart="185.99" from="1091118287" to="1056048099" departLane="best" type="veh_passenger" departSpeed="max"/>
    <trip id="veh65" depart="188.90" from="314486958#0" to="314486954" departLane="best" type="veh_passenger" departSpeed="max"/>
    <trip id="veh66" depart="191.80" from="314486958#0" to="1056048099" departLane="best" type="veh_passenger" departSpeed="max"/>
    <trip id="veh67" depart="194.71" from="1091118287" to="314486949#0" departLane="best" type="veh_passenger" departSpeed="max"/>
    <trip id="veh68" depart="197.61" from="314486958#0" to="314486954" departLane="best" type="veh_passenger" departSpeed="max"/>
    <trip id="veh69" depart="200.52" from="314486958#0" to="1056048099" departLane="best" type="veh_passenger" departSpeed="max"/>
    <trip id="veh70" depart="203.43" from="29693692#0" to="156875202#0" departLane="best" type="veh_passenger"/>
    <trip id="veh71" depart="206.33" from="314486958#0" to="156875202#0" departLane="best" type="veh_passenger" departSpeed="max"/>
    <trip id="veh72" depart="209.24" from="1091118287" to="314486949#2" departLane="best" type="veh_passenger" departSpeed="max"/>
    <trip id="veh73" depart="212.15" from="314486949#2" to="156875202#0" departLane="best" type="veh_passenger"/>
    <trip id="veh74" depart="215.05" from="156926070#0" to="777745825" departLane="best" type="veh_passenger" departSpeed="max"/>
    <trip id="veh75" depart="217.96" from="314486951#0" to="777745825" departLane="best" type="veh_passenger" departSpeed="max"/>
    <trip id="veh76" depart="220.86" from="77882930#0" to="777745825" departLane="best" type="veh_passenger"/>
    <trip id="veh77" depart="223.77" from="314486958#0" to="777745825" departLane="best" type="veh_passenger" departSpeed="max"/>
    <trip id="veh78" depart="226.68" from="314486958#0" to="1056048099" departLane="best" type="veh_passenger" departSpeed="max"/>
    <trip id="veh79" depart="229.58" from="156926070#0" to="77882930#0" departLane="best" type="veh_passenger" departSpeed="max"/>
    <trip id="veh80" depart="232.49" from="156926070#0" to="314486956#0" departLane="best" type="veh_passenger" departSpeed="max"/>
    <trip id="veh81" depart="235.39" from="314486951#0" to="314486954" departLane="best" type="veh_passenger" departSpeed="max"/>
    <trip id="veh82" depart="238.30" from="1091118287" to="156875202#0" departLane="best" type="veh_passenger" departSpeed="max"/>
    <trip id="veh83" depart="241.21" from="314486958#0" to="314486954" departLane="best" type="veh_passenger" departSpeed="max"/>
    <trip id="veh84" depart="244.11" from="314486951#0" to="314486954" departLane="best" type="veh_passenger" departSpeed="max"/>
    <trip id="veh85" depart="247.02" from="314486951#0" to="777745825" departLane="best" type="veh_passenger" departSpeed="max"/>
    <trip id="veh86" depart="249.92" from="1091118287" to="777745825" departLane="best" type="veh_passenger" departSpeed="max"/>
    <trip id="veh87" depart="252.83" from="1091118287" to="1056048099" departLane="best" type="veh_passenger" departSpeed="max"/>
    <trip id="veh88" depart="255.74" from="314486951#0" to="314486954" departLane="best" type="veh_passenger" departSpeed="max"/>
    <trip id="veh89" depart="258.64" from="314486958#0" to="156875202#0" departLane="best" type="veh_passenger" departSpeed="max"/>
    <trip id="veh90" depart="261.55" from="314486951#0" to="314486954" departLane="best" type="veh_passenger" departSpeed="max"/>
    <trip id="veh91" depart="264.46" from="314486949#2" to="314486954" departLane="best" type="veh_passenger"/>
    <trip id="veh92" depart="267.36" from="314486951#0" to="777745825" departLane="best" type="veh_passenger" departSpeed="max"/>
    <trip id="veh93" depart="270.27" from="125871022#0" to="156875202#0" departLane="best" type="veh_passenger"/>
    <trip id="veh94" depart="273.17" from="314486951#1" to="156875202#0" departLane="best" type="veh_passenger"/>
    <trip id="veh95" depart="276.08" from="156926070#0" to="314486954" departLane="best" type="veh_passenger" departSpeed="max"/>
    <trip id="veh96" depart="278.99" from="1091118287" to="125871022#0" departLane="best" type="veh_passenger" departSpeed="max"/>
    <trip id="veh97" depart="281.89" from="156926070#0" to="777745825" departLane="best" type="veh_passenger" departSpeed="max"/>
    <trip id="veh98" depart="284.80" from="314486958#0" to="777745825" departLane="best" type="veh_passenger" departSpeed="max"/>
    <trip id="veh99" depart="287.70" from="156926070#0" to="1056048099" departLane="best" type="veh_passenger" departSpeed="max"/>
    <trip id="veh100" depart="290.61" from="314486958#0" to="314486954" departLane="best" type="veh_passenger" departSpeed="max"/>
    <trip id="veh101" depart="293.52" from="314486958#0" to="156875202#0" departLane="best" type="veh_passenger" departSpeed="max"/>
    <trip id="veh102" depart="296.42" from="314486951#0" to="777745825" departLane="best" type="veh_passenger" departSpeed="max"/>
    <trip id="veh103" depart="299.33" from="1091118287" to="1056048099" departLane="best" type="veh_passenger" departSpeed="max"/>
    <trip id="veh104" depart="302.23" from="156926070#0" to="314486954" departLane="best" type="veh_passenger" departSpeed="max"/>
    <trip id="veh105" depart="305.14" from="314486951#0" to="156875202#0" departLane="best" type="veh_passenger" departSpeed="max"/>
    <trip id="veh106" depart="308.05" from="314486951#0" to="777745825" departLane="best" type="veh_passenger" departSpeed="max"/>
    <trip id="veh107" depart="310.95" from="314486958#0" to="1056048099" departLane="best" type="veh_passenger" departSpeed="max"/>
    <trip id="veh108" depart="313.86" from="314486949#2" to="156875202#0" departLane="best" type="veh_passenger"/>
    <trip id="veh109" depart="316.76" from="-1130867319" to="314486954" departLane="best" type="veh_passenger"/>
    <trip id="veh110" depart="319.67" from="314486951#0" to="156875202#0" departLane="best" type="veh_passenger" departSpeed="max"/>
    <trip id="veh111" depart="322.58" from="314486958#0" to="314486954" departLane="best" type="veh_passenger" departSpeed="max"/>
    <trip id="veh112" depart="325.48" from="1091118287" to="777745825" departLane="best" type="veh_passenger" departSpeed="max"/>
    <trip id="veh113" depart="328.39" from="314486958#0" to="314486954" departLane="best" type="veh_passenger" departSpeed="max"/>
    <trip id="veh114" depart="331.30" from="314486958#0" to="314486954" departLane="best" type="veh_passenger" departSpeed="max"/>
    <trip id="veh115" depart="334.20" from="1091118287" to="1056048099" departLane="best" type="veh_passenger" departSpeed="max"/>
    <trip id="veh116" depart="337.11" from="156926070#0" to="777745825" departLane="best" type="veh_passenger" departSpeed="max"/>
    <trip id="veh117" depart="340.01" from="314486958#0" to="777745825" departLane="best" type="veh_passenger" departSpeed="max"/>
    <trip id="veh118" depart="342.92" from="156926070#0" to="1056048099" departLane="best" type="veh_passenger" departSpeed="max"/>
    <trip id="veh119" depart="345.83" from="314486958#0" to="777745825" departLane="best" type="veh_passenger" departSpeed="max"/>
    <trip id="veh120" depart="348.73" from="314486949#0" to="314486954" departLane="best" type="veh_passenger"/>
    <trip id="veh121" depart="351.64" from="1091118287" to="777745825" departLane="best" type="veh_passenger" departSpeed="max"/>
    <trip id="veh122" depart="354.54" from="314486958#0" to="777745825" departLane="best" type="veh_passenger" departSpeed="max"/>
    <trip id="veh123" depart="357.45" from="314486958#0" to="777745825" departLane="best" type="veh_passenger" departSpeed="max"/>
    <trip id="veh124" depart="360.36" from="156926070#0" to="777745825" departLane="best" type="veh_passenger" departSpeed="max"/>
    <trip id="veh125" depart="363.26" from="314486958#0" to="777745825" departLane="best" type="veh_passenger" departSpeed="max"/>
    <trip id="veh126" depart="366.17" from="314486958#0" to="156875202#0" departLane="best" type="veh_passenger" departSpeed="max"/>
    <trip id="veh127" depart="369.07" from="314486958#0" to="1056048099" departLane="best" type="veh_passenger" departSpeed="max"/>
    <trip id="veh128" depart="371.98" from="314486958#0" to="777745825" departLane="best" type="veh_passenger" departSpeed="max"/>
    <trip id="veh129" depart="374.89" from="1091118287" to="777745825" departLane="best" type="veh_passenger" departSpeed="max"/>
    <trip id="veh130" depart="377.79" from="314486951#0" to="156875202#0" departLane="best" type="veh_passenger" departSpeed="max"/>
    <trip id="veh131" depart="380.70" from="314486958#0" to="156875202#0" departLane="best" type="veh_passenger" departSpeed="max"/>
    <trip id="veh132" depart="383.61" from="1091118287" to="1056048099" departLane="best" type="veh_passenger" departSpeed="max"/>
    <trip id="veh133" depart="386.51" from="156926070#0" to="777745825" departLane="best" type="veh_passenger" departSpeed="max"/>
    <trip id="veh134" depart="389.42" from="314486958#0" to="156875202#0" departLane="best" type="veh_passenger" departSpeed="max"/>
    <trip id="veh135" depart="392.32" from="314486951#0" to="156875202#0" departLane="best" type="veh_passenger" departSpeed="max"/>
    <trip id="veh136" depart="395.23" from="314486958#0" to="314486954" departLane="best" type="veh_passenger" departSpeed="max"/>
    <trip id="veh137" depart="398.14" from="314486958#0" to="1056048099" departLane="best" type="veh_passenger" departSpeed="max"/>
    <trip id="veh138" depart="401.04" from="314486958#0" to="1056048099" departLane="best" type="veh_passenger" departSpeed="max"/>
    <trip id="veh139" depart="403.95" from="314486958#0" to="156875202#0" departLane="best" type="veh_passenger" departSpeed="max"/>
    <trip id="veh140" depart="406.85" from="1091118287" to="314486949#0" departLane="best" type="veh_passenger" departSpeed="max"/>
    <trip id="veh141" depart="409.76" from="314486958#0" to="156875202#0" departLane="best" type="veh_passenger" departSpeed="max"/>
    <trip id="veh142" depart="412.67" from="314486951#0" to="314486954" departLane="best" type="veh_passenger" departSpeed="max"/>
    <trip id="veh143" depart="415.57" from="156926070#0" to="314486954" departLane="best" type="veh_passenger" departSpeed="max"/>
    <trip id="veh144" depart="418.48" from="156926070#0" to="314486954" departLane="best" type="veh_passenger" departSpeed="max"/>
    <trip id="veh145" depart="421.38" from="-1130867319" to="777745825" departLane="best" type="veh_passenger"/>
    <trip id="veh146" depart="424.29" from="314486951#0" to="314486954" departLane="best" type="veh_passenger" departSpeed="max"/>
    <trip id="veh147" depart="427.20" from="314486958#0" to="314486954" departLane="best" type="veh_passenger" departSpeed="max"/>
    <trip id="veh148" depart="430.10" from="156926070#0" to="1056048099" departLane="best" type="veh_passenger" departSpeed="max"/>
    <trip id="veh149" depart="433.01" from="314486951#1" to="156875202#0" departLane="best" type="veh_passenger"/>
    <trip id="veh150" depart="435.91" from="156926070#0" to="777745825" departLane="best" type="veh_passenger" departSpeed="max"/>
    <trip id="veh151" depart="438.82" from="314486958#0" to="156875202#0" departLane="best" type="veh_passenger" departSpeed="max"/>
    <trip id="veh152" depart="441.73" from="156926070#0" to="25049105#0" departLane="best" type="veh_passenger" departSpeed="max"/>
    <trip id="veh153" depart="444.63" from="29693692#0" to="156875202#0" departLane="best" type="veh_passenger"/>
    <trip id="veh154" depart="447.54" from="314486958#0" to="314486954" departLane="best" type="veh_passenger" departSpeed="max"/>
    <trip id="veh155" depart="450.45" from="314486958#0" to="314486954" departLane="best" type="veh_passenger" departSpeed="max"/>
    <trip id="veh156" depart="453.35" from="156926070#0" to="314486954" departLane="best" type="veh_passenger" departSpeed="max"/>
    <trip id="veh157" depart="456.26" from="-1130867319" to="156875202#0" departLane="best" type="veh_passenger"/>
    <trip id="veh158" depart="459.16" from="314486950#0" to="314486954" departLane="best" type="veh_passenger"/>
    <trip id="veh159" depart="462.07" from="314486951#0" to="777745825" departLane="best" type="veh_passenger" departSpeed="max"/>
    <trip id="veh160" depart="464.98" from="314486958#0" to="1056048099" departLane="best" type="veh_passenger" departSpeed="max"/>
    <trip id="veh161" depart="467.88" from="314486951#0" to="156875202#0" departLane="best" type="veh_passenger" departSpeed="max"/>
    <trip id="veh162" depart="470.79" from="314486958#0" to="314486954" departLane="best" type="veh_passenger" departSpeed="max"/>
    <trip id="veh163" depart="473.69" from="314486951#1" to="156875202#0" departLane="best" type="veh_passenger"/>
    <trip id="veh164" depart="476.60" from="1091118287" to="1056048099" departLane="best" type="veh_passenger" departSpeed="max"/>
    <trip id="veh165" depart="479.51" from="156926070#0" to="314486951#1" departLane="best" type="veh_passenger" departSpeed="max"/>
    <trip id="veh166" depart="482.41" from="314486958#0" to="1056048099" departLane="best" type="veh_passenger" departSpeed="max"/>
    <trip id="veh167" depart="485.32" from="314486949#0" to="314486954" departLane="best" type="veh_passenger"/>
    <trip id="veh168" depart="488.22" from="314486951#0" to="156875202#0" departLane="best" type="veh_passenger" departSpeed="max"/>
    <trip id="veh169" depart="491.13" from="314486958#0" to="314486954" departLane="best" type="veh_passenger" departSpeed="max"/>
    <trip id="veh170" depart="494.04" from="1091118287" to="777745825" departLane="best" type="veh_passenger" departSpeed="max"/>
    <trip id="veh171" depart="496.94" from="156926070#0" to="777745825" departLane="best" type="veh_passenger" departSpeed="max"/>
    <trip id="veh172" depart="499.85" from="314486951#0" to="777745825" departLane="best" type="veh_passenger" departSpeed="max"/>
    <trip id="veh173" depart="502.76" from="314486951#0" to="777745825" departLane="best" type="veh_passenger" departSpeed="max"/>
    <trip id="veh174" depart="505.66" from="314486958#0" to="314486954" departLane="best" type="veh_passenger" departSpeed="max"/>
    <trip id="veh175" depart="508.57" from="314486958#0" to="314486954" departLane="best" type="veh_passenger" departSpeed="max"/>
    <trip id="veh176" depart="511.47" from="314486958#0" to="314486954" departLane="best" type="veh_passenger" departSpeed="max"/>
    <trip id="veh177" depart="514.38" from="314486958#0" to="314486954" departLane="best" type="veh_passenger" departSpeed="max"/>
    <trip id="veh178" depart="517.29" from="314486951#0" to="156875202#0" departLane="best" type="veh_passenger" departSpeed="max"/>
    <trip id="veh179" depart="520.19" from="156926070#0" to="314486954" departLane="best" type="veh_passenger" departSpeed="max"/>
    <trip id="veh180" depart="523.10" from="314486958#0" to="314486954" departLane="best" type="veh_passenger" departSpeed="max"/>
    <trip id="veh181" depart="526.00" from="314486951#0" to="156875202#0" departLane="best" type="veh_passenger" departSpeed="max"/>
    <trip id="veh182" depart="528.91" from="1091118287" to="156875202#0" departLane="best" type="veh_passenger" departSpeed="max"/>
    <trip id="veh183" depart="531.82" from="125871020" to="314486954" departLane="best" type="veh_passenger"/>
    <trip id="veh184" depart="534.72" from="314486958#0" to="1056048099" departLane="best" type="veh_passenger" departSpeed="max"/>
    <trip id="veh185" depart="537.63" from="314486949#0" to="314486954" departLane="best" type="veh_passenger"/>
    <trip id="veh186" depart="540.53" from="314486949#2" to="777745825" departLane="best" type="veh_passenger"/>
    <trip id="veh187" depart="543.44" from="314486951#0" to="314486954" departLane="best" type="veh_passenger" departSpeed="max"/>
    <trip id="veh188" depart="546.35" from="314486958#0" to="314486954" departLane="best" type="veh_passenger" departSpeed="max"/>
    <trip id="veh189" depart="549.25" from="156926070#0" to="1056048099" departLane="best" type="veh_passenger" departSpeed="max"/>
    <trip id="veh190" depart="552.16" from="156926070#0" to="314486954" departLane="best" type="veh_passenger" departSpeed="max"/>
    <trip id="veh191" depart="555.06" from="314486958#0" to="777745825" departLane="best" type="veh_passenger" departSpeed="max"/>
    <trip id="veh192" depart="557.97" from="314486949#2" to="314486954" departLane="best" type="veh_passenger"/>
    <trip id="veh193" depart="560.88" from="314486951#0" to="314486954" departLane="best" type="veh_passenger" departSpeed="max"/>
    <trip id="veh194" depart="563.78" from="1091118287" to="156875202#0" departLane="best" type="veh_passenger" departSpeed="max"/>
    <trip id="veh195" depart="566.69" from="156926070#0" to="314486954" departLane="best" type="veh_passenger" departSpeed="max"/>
    <trip id="veh196" depart="569.60" from="25049105#0" to="314486954" departLane="best" type="veh_passenger"/>
    <trip id="veh197" depart="572.50" from="1091118287" to="156875202#0" departLane="best" type="veh_passenger" departSpeed="max"/>
    <trip id="veh198" depart="575.41" from="1091118287" to="156875202#0" departLane="best" type="veh_passenger" departSpeed="max"/>
    <trip id="veh199" depart="578.31" from="314486958#0" to="156875202#0" departLane="best" type="veh_passenger" departSpeed="max"/>
    <trip id="veh200" depart="581.22" from="314486958#0" to="777745825" departLane="best" type="veh_passenger" departSpeed="max"/>
    <trip id="veh201" depart="584.13" from="156926070#0" to="1056048099" departLane="best" type="veh_passenger" departSpeed="max"/>
    <trip id="veh202" depart="587.03" from="314486951#0" to="314486954" departLane="best" type="veh_passenger" departSpeed="max"/>
    <trip id="veh203" depart="589.94" from="1091118287" to="1056048099" departLane="best" type="veh_passenger" departSpeed="max"/>
    <trip id="veh204" depart="592.84" from="314486958#0" to="314486954" departLane="best" type="veh_passenger" departSpeed="max"/>
    <trip id="veh205" depart="595.75" from="314486958#0" to="1056048099" departLane="best" type="veh_passenger" departSpeed="max"/>
    <trip id="veh206" depart="598.66" from="314486958#0" to="777745825" departLane="best" type="veh_passenger" departSpeed="max"/>
    <trip id="veh207" depart="601.56" from="1091118287" to="1056048099" departLane="best" type="veh_passenger" departSpeed="max"/>
    <trip id="veh208" depart="604.47" from="156926070#0" to="314486954" departLane="best" type="veh_passenger" departSpeed="max"/>
    <trip id="veh209" depart="607.37" from="314486958#0" to="156875202#0" departLane="best" type="veh_passenger" departSpeed="max"/>
    <trip id="veh210" depart="610.28" from="314486958#0" to="1056048099" departLane="best" type="veh_passenger" departSpeed="max"/>
    <trip id="veh211" depart="613.19" from="314486958#0" to="314486954" departLane="best" type="veh_passenger" departSpeed="max"/>
    <trip id="veh212" depart="616.09" from="314486958#0" to="314486954" departLane="best" type="veh_passenger" departSpeed="max"/>
    <trip id="veh213" depart="619.00" from="314486958#0" to="156875202#0" departLane="best" type="veh_passenger" departSpeed="max"/>
    <trip id="veh214" depart="621.91" from="314486950#0" to="156875202#0" departLane="best" type="veh_passenger"/>
    <trip id="veh215" depart="624.81" from="314486951#0" to="156875202#0" departLane="best" type="veh_passenger" departSpeed="max"/>
    <trip id="veh216" depart="627.72" from="314486958#0" to="777745825" departLane="best" type="veh_passenger" departSpeed="max"/>
    <trip id="veh217" depart="630.62" from="1091118287" to="777745825" departLane="best" type="veh_passenger" departSpeed="max"/>
    <trip id="veh218" depart="633.53" from="314486951#0" to="777745825" departLane="best" type="veh_passenger" departSpeed="max"/>
    <trip id="veh219" depart="636.44" from="314486958#0" to="777745825" departLane="best" type="veh_passenger" departSpeed="max"/>
    <trip id="veh220" depart="639.34" from="156926070#0" to="777745825" departLane="best" type="veh_passenger" departSpeed="max"/>
    <trip id="veh221" depart="642.25" from="314486950#0" to="314486954" departLane="best" type="veh_passenger"/>
    <trip id="veh222" depart="645.15" from="156926070#0" to="777745825" departLane="best" type="veh_passenger" departSpeed="max"/>
    <trip id="veh223" depart="648.06" from="314486958#0" to="1056048099" departLane="best" type="veh_passenger" departSpeed="max"/>
    <trip id="veh224" depart="650.97" from="314486958#0" to="156875202#0" departLane="best" type="veh_passenger" departSpeed="max"/>