<?xml version="1.0" encoding="UTF-8"?>

<!-- generated on 2024-04-28 14:03:12.676723 by randomTrips.py v1_19_0+0000-baa66a0f364
<configuration>
    <net-file value="osm.net.xml.gz"/>
    <output-trip-file value="osm.passenger.trips.xml"/>
    <route-file value="osm.passenger.rou.xml"/>
    <prefix value="veh"/>
    <trip-attributes value="departLane=&quot;best&quot;"/>
    <fringe-start-attributes value="departSpeed=&quot;max&quot;"/>
    <vehicle-class value="passenger"/>
    <lanes value="True"/>
    <fringe-factor value="20"/>
    <allow-fringe.min-length value="1000.0"/>
    <via-edge-types value="highway.motorway,highway.motorway_link,highway.trunk_link,highway.primary_link,highway.secondary_link,highway.tertiary_link"/>
    <min-distance value="300.0"/>
    <min-distance.fringe value="10.0"/>
    <remove-loops value="True"/>
    <validate value="True"/>
    <insertion-density value="200.0"/>
</configuration>
-->

<!-- generated on 2024-04-28 14:03:12 by Eclipse SUMO duarouter Version 1.19.0
<configuration xmlns:xsi="http://www.w3.org/2001/XMLSchema-instance" xsi:noNamespaceSchemaLocation="http://sumo.dlr.de/xsd/duarouterConfiguration.xsd">

    <input>
        <net-file value="osm.net.xml.gz"/>
        <route-files value="osm.passenger.trips.xml"/>
    </input>

    <output>
        <output-file value="osm.passenger.trips.xml.tmp"/>
        <alternatives-output value="NUL"/>
        <write-trips value="true"/>
    </output>

    <processing>
        <remove-loops value="true"/>
    </processing>

    <time>
        <begin value="0.0"/>
        <end value="3600.0"/>
    </time>

    <report>
        <no-warnings value="true"/>
        <ignore-errors value="true"/>
        <no-step-log value="true"/>
    </report>

</configuration>
-->

<routes xmlns:xsi="http://www.w3.org/2001/XMLSchema-instance" xsi:noNamespaceSchemaLocation="http://sumo.dlr.de/xsd/routes_file.xsd">
    <vType id="veh_passenger" vClass="passenger"/>
    <trip id="veh0" type="veh_passenger" depart="0.00" departLane="best" departSpeed="max" from="314486958#0" to="314486954"/>
    <trip id="veh1" type="veh_passenger" depart="2.91" departLane="best" departSpeed="max" from="314486958#0" to="1056048099"/>
    <trip id="veh2" type="veh_passenger" depart="5.81" departLane="best" departSpeed="max" from="1091118287" to="1130867319"/>
    <trip id="veh3" type="veh_passenger" depart="8.72" departLane="best" departSpeed="max" from="314486951#0" to="314486954"/>
    <trip id="veh4" type="veh_passenger" depart="11.62" departLane="best" departSpeed="max" from="314486958#0" to="1056048099"/>
    <trip id="veh5" type="veh_passenger" depart="14.53" departLane="best" departSpeed="max" from="314486958#0" to="314486954"/>
    <trip id="veh6" type="veh_passenger" depart="17.44" departLane="best" departSpeed="max" from="156926070#0" to="1056048099"/>
    <trip id="veh7" type="veh_passenger" depart="20.34" departLane="best" departSpeed="max" from="314486958#0" to="156875202#0"/>
    <trip id="veh8" type="veh_passenger" depart="23.25" departLane="best" departSpeed="max" from="1091118287" to="1056048099"/>
    <trip id="veh9" type="veh_passenger" depart="26.15" departLane="best" departSpeed="max" from="314486958#0" to="314486954"/>
    <trip id="veh10" type="veh_passenger" depart="29.06" departLane="best" departSpeed="max" from="314486958#0" to="314486954"/>
    <trip id="veh11" type="veh_passenger" depart="31.97" departLane="best" departSpeed="max" from="314486951#0" to="777745825"/>
    <trip id="veh12" type="veh_passenger" depart="34.87" departLane="best" departSpeed="max" from="156926070#0" to="314486954"/>
    <trip id="veh13" type="veh_passenger" depart="37.78" departLane="best" departSpeed="max" from="314486958#0" to="314486954"/>
    <trip id="veh14" type="veh_passenger" depart="40.69" departLane="best" departSpeed="max" from="314486958#0" to="314486954"/>
    <trip id="veh15" type="veh_passenger" depart="43.59" departLane="best" departSpeed="max" from="314486958#0" to="1056048099"/>
    <trip id="veh16" type="veh_passenger" depart="46.50" departLane="best" from="1130867319" to="156875202#0"/>
    <trip id="veh17" type="veh_passenger" depart="49.40" departLane="best" departSpeed="max" from="1091118287" to="156875202#0"/>
    <trip id="veh18" type="veh_passenger" depart="52.31" departLane="best" departSpeed="max" from="1091118287" to="156875202#0"/>
    <trip id="veh19" type="veh_passenger" depart="55.22" departLane="best" departSpeed="max" from="314486951#0" to="156875202#0"/>
    <trip id="veh20" type="veh_passenger" depart="58.12" departLane="best" departSpeed="max" from="156926070#0" to="125871022#0"/>
    <trip id="veh21" type="veh_passenger" depart="61.03" departLane="best" departSpeed="max" from="156926070#0" to="777745825"/>
    <trip id="veh22" type="veh_passenger" depart="63.93" departLane="best" departSpeed="max" from="314486951#0" to="314486954"/>
    <trip id="veh23" type="veh_passenger" depart="66.84" departLane="best" departSpeed="max" from="1091118287" to="156875202#0"/>
    <trip id="veh24" type="veh_passenger" depart="69.75" departLane="best" from="77882930#0" to="314486954"/>
    <trip id="veh25" type="veh_passenger" depart="72.65" departLane="best" departSpeed="max" from="314486951#0" to="314486954"/>
    <trip id="veh26" type="veh_passenger" depart="75.56" departLane="best" departSpeed="max" from="1091118287" to="777745825"/>
    <trip id="veh27" type="veh_passenger" depart="78.46" departLane="best" departSpeed="max" from="314486958#0" to="156875202#0"/>
    <trip id="veh28" type="veh_passenger" depart="81.37" departLane="best" departSpeed="max" from="314486951#0" to="156875202#0"/>
    <trip id="veh29" type="veh_passenger" depart="84.28" departLane="best" departSpeed="max" from="314486951#0" to="156875202#0"/>
    <trip id="veh30" type="veh_passenger" depart="87.18" departLane="best" departSpeed="max" from="314486951#0" to="777745825"/>
    <trip id="veh32" type="veh_passenger" depart="93.00" departLane="best" from="77882930#0" to="314486954"/>
    <trip id="veh33" type="veh_passenger" depart="95.90" departLane="best" departSpeed="max" from="1091118287" to="1056048099"/>
    <trip id="veh34" type="veh_passenger" depart="98.81" departLane="best" departSpeed="max" from="1091118287" to="156875202#0"/>
    <trip id="veh35" type="veh_passenger" depart="101.71" departLane="best" from="77882930#0" to="314486954"/>
    <trip id="veh36" type="veh_passenger" depart="104.62" departLane="best" departSpeed="max" from="314486958#0" to="777745825"/>
    <trip id="veh37" type="veh_passenger" depart="107.53" departLane="best" departSpeed="max" from="156926070#0" to="314486954"/>
    <trip id="veh38" type="veh_passenger" depart="110.43" departLane="best" departSpeed="max" from="1091118287" to="314486949#0"/>
    <trip id="veh39" type="veh_passenger" depart="113.34" departLane="best" departSpeed="max" from="314486951#0" to="777745825"/>
    <trip id="veh40" type="veh_passenger" depart="116.24" departLane="best" departSpeed="max" from="314486958#0" to="156875202#0"/>
    <trip id="veh41" type="veh_passenger" depart="119.15" departLane="best" departSpeed="max" from="314486958#0" to="777745825"/>
    <trip id="veh42" type="veh_passenger" depart="122.06" departLane="best" departSpeed="max" from="156926070#0" to="314486954"/>
    <trip id="veh43" type="veh_passenger" depart="124.96" departLane="best" departSpeed="max" from="314486958#0" to="314486954"/>
    <trip id="veh44" type="veh_passenger" depart="127.87" departLane="best" departSpeed="max" from="314486958#0" to="314486954"/>
    <trip id="veh45" type="veh_passenger" depart="130.77" departLane="best" from="1130867319" to="156875202#0"/>
    <trip id="veh46" type="veh_passenger" depart="133.68" departLane="best" departSpeed="max" from="1091118287" to="777745825"/>
    <trip id="veh47" type="veh_passenger" depart="136.59" departLane="best" departSpeed="max" from="314486958#0" to="777745825"/>
    <trip id="veh48" type="veh_passenger" depart="139.49" departLane="best" departSpeed="max" from="156926070#0" to="1056048099"/>
    <trip id="veh49" type="veh_passenger" depart="142.40" departLane="best" departSpeed="max" from="314486958#0" to="777745825"/>
    <trip id="veh50" type="veh_passenger" depart="145.30" departLane="best" departSpeed="max" from="1091118287" to="314486951#1"/>
    <trip id="veh51" type="veh_passenger" depart="148.21" departLane="best" departSpeed="max" from="314486958#0" to="1056048099"/>
    <trip id="veh52" type="veh_passenger" depart="151.12" departLane="best" departSpeed="max" from="314486951#0" to="314486954"/>
    <trip id="veh53" type="veh_passenger" depart="154.02" departLane="best" departSpeed="max" from="156926070#0" to="777745825"/>
    <trip id="veh54" type="veh_passenger" depart="156.93" departLane="best" departSpeed="max" from="314486951#0" to="314486954"/>
    <trip id="veh55" type="veh_passenger" depart="159.84" departLane="best" departSpeed="max" from="1091118287" to="156875202#0"/>
    <trip id="veh56" type="veh_passenger" depart="162.74" departLane="best" from="77882930#0" to="314486954"/>
    <trip id="veh57" type="veh_passenger" depart="165.65" departLane="best" from="314486950#0" to="314486954"/>
    <trip id="veh58" type="veh_passenger" depart="168.55" departLane="best" departSpeed="max" from="1091118287" to="156875202#0"/>
    <trip id="veh59" type="veh_passenger" depart="171.46" departLane="best" departSpeed="max" from="156926070#0" to="314486954"/>
    <trip id="veh60" type="veh_passenger" depart="174.37" departLane="best" from="125871020" to="156875202#0"/>
    <trip id="veh61" type="veh_passenger" depart="177.27" departLane="best" from="125871020" to="777745825"/>
    <trip id="veh62" type="veh_passenger" depart="180.18" departLane="best" departSpeed="max" from="314486958#0" to="1056048099"/>
    <trip id="veh63" type="veh_passenger" depart="183.08" departLane="best" from="314486950#0" to="314486954"/>
    <trip id="veh64" type="veh_passenger" depart="185.99" departLane="best" departSpeed="max" from="1091118287" to="1056048099"/>
    <trip id="veh65" type="veh_passenger" depart="188.90" departLane="best" departSpeed="max" from="314486958#0" to="314486954"/>
    <trip id="veh66" type="veh_passenger" depart="191.80" departLane="best" departSpeed="max" from="314486958#0" to="1056048099"/>
    <trip id="veh67" type="veh_passenger" depart="194.71" departLane="best" departSpeed="max" from="1091118287" to="314486949#0"/>
    <trip id="veh68" type="veh_passenger" depart="197.61" departLane="best" departSpeed="max" from="314486958#0" to="314486954"/>
    <trip id="veh69" type="veh_passenger" depart="200.52" departLane="best" departSpeed="max" from="314486958#0" to="1056048099"/>
    <trip id="veh71" type="veh_passenger" depart="206.33" departLane="best" departSpeed="max" from="314486958#0" to="156875202#0"/>
    <trip id="veh72" type="veh_passenger" depart="209.24" departLane="best" departSpeed="max" from="1091118287" to="314486949#2"/>
    <trip id="veh73" type="veh_passenger" depart="212.15" departLane="best" from="314486949#2" to="156875202#0"/>
    <trip id="veh74" type="veh_passenger" depart="215.05" departLane="best" departSpeed="max" from="156926070#0" to="777745825"/>
    <trip id="veh75" type="veh_passenger" depart="217.96" departLane="best" departSpeed="max" from="314486951#0" to="777745825"/>
    <trip id="veh76" type="veh_passenger" depart="220.86" departLane="best" from="77882930#0" to="777745825"/>
    <trip id="veh77" type="veh_passenger" depart="223.77" departLane="best" departSpeed="max" from="314486958#0" to="777745825"/>
    <trip id="veh78" type="veh_passenger" depart="226.68" departLane="best" departSpeed="max" from="314486958#0" to="1056048099"/>
    <trip id="veh79" type="veh_passenger" depart="229.58" departLane="best" departSpeed="max" from="156926070#0" to="77882930#0"/>
    <trip id="veh81" type="veh_passenger" depart="235.39" departLane="best" departSpeed="max" from="314486951#0" to="314486954"/>
    <trip id="veh82" type="veh_passenger" depart="238.30" departLane="best" departSpeed="max" from="1091118287" to="156875202#0"/>
    <trip id="veh83" type="veh_passenger" depart="241.21" departLane="best" departSpeed="max" from="314486958#0" to="314486954"/>
    <trip id="veh84" type="veh_passenger" depart="244.11" departLane="best" departSpeed="max" from="314486951#0" to="314486954"/>
    <trip id="veh85" type="veh_passenger" depart="247.02" departLane="best" departSpeed="max" from="314486951#0" to="777745825"/>
    <trip id="veh86" type="veh_passenger" depart="249.92" departLane="best" departSpeed="max" from="1091118287" to="777745825"/>
    <trip id="veh87" type="veh_passenger" depart="252.83" departLane="best" departSpeed="max" from="1091118287" to="1056048099"/>
    <trip id="veh88" type="veh_passenger" depart="255.74" departLane="best" departSpeed="max" from="314486951#0" to="314486954"/>
    <trip id="veh89" type="veh_passenger" depart="258.64" departLane="best" departSpeed="max" from="314486958#0" to="156875202#0"/>
    <trip id="veh90" type="veh_passenger" depart="261.55" departLane="best" departSpeed="max" from="314486951#0" to="314486954"/>
    <trip id="veh91" type="veh_passenger" depart="264.46" departLane="best" from="314486949#2" to="314486954"/>
    <trip id="veh92" type="veh_passenger" depart="267.36" departLane="best" departSpeed="max" from="314486951#0" to="777745825"/>
    <trip id="veh93" type="veh_passenger" depart="270.27" departLane="best" from="314486950#0" to="156875202#0"/>
    <trip id="veh94" type="veh_passenger" depart="273.17" departLane="best" from="314486951#1" to="156875202#0"/>
    <trip id="veh95" type="veh_passenger" depart="276.08" departLane="best" departSpeed="max" from="156926070#0" to="314486954"/>
    <trip id="veh96" type="veh_passenger" depart="278.99" departLane="best" departSpeed="max" from="1091118287" to="125871022#0"/>
    <trip id="veh97" type="veh_passenger" depart="281.89" departLane="best" departSpeed="max" from="156926070#0" to="777745825"/>
    <trip id="veh98" type="veh_passenger" depart="284.80" departLane="best" departSpeed="max" from="314486958#0" to="777745825"/>
    <trip id="veh99" type="veh_passenger" depart="287.70" departLane="best" departSpeed="max" from="156926070#0" to="1056048099"/>
    <trip id="veh100" type="veh_passenger" depart="290.61" departLane="best" departSpeed="max" from="314486958#0" to="314486954"/>
    <trip id="veh101" type="veh_passenger" depart="293.52" departLane="best" departSpeed="max" from="314486958#0" to="156875202#0"/>
    <trip id="veh102" type="veh_passenger" depart="296.42" departLane="best" departSpeed="max" from="314486951#0" to="777745825"/>
    <trip id="veh103" type="veh_passenger" depart="299.33" departLane="best" departSpeed="max" from="1091118287" to="1056048099"/>
    <trip id="veh104" type="veh_passenger" depart="302.23" departLane="best" departSpeed="max" from="156926070#0" to="314486954"/>
    <trip id="veh105" type="veh_passenger" depart="305.14" departLane="best" departSpeed="max" from="314486951#0" to="156875202#0"/>
    <trip id="veh106" type="veh_passenger" depart="308.05" departLane="best" departSpeed="max" from="314486951#0" to="777745825"/>
    <trip id="veh107" type="veh_passenger" depart="310.95" departLane="best" departSpeed="max" from="314486958#0" to="1056048099"/>
    <trip id="veh108" type="veh_passenger" depart="313.86" departLane="best" from="314486949#2" to="156875202#0"/>
    <trip id="veh109" type="veh_passenger" depart="316.76" departLane="best" from="1130867319" to="314486954"/>
    <trip id="veh110" type="veh_passenger" depart="319.67" departLane="best" departSpeed="max" from="314486951#0" to="156875202#0"/>
    <trip id="veh111" type="veh_passenger" depart="322.58" departLane="best" departSpeed="max" from="314486958#0" to="314486954"/>
    <trip id="veh112" type="veh_passenger" depart="325.48" departLane="best" departSpeed="max" from="1091118287" to="777745825"/>
    <trip id="veh113" type="veh_passenger" depart="328.39" departLane="best" departSpeed="max" from="314486958#0" to="314486954"/>
    <trip id="veh114" type="veh_passenger" depart="331.30" departLane="best" departSpeed="max" from="314486958#0" to="314486954"/>
    <trip id="veh115" type="veh_passenger" depart="334.20" departLane="best" departSpeed="max" from="1091118287" to="1056048099"/>
    <trip id="veh116" type="veh_passenger" depart="337.11" departLane="best" departSpeed="max" from="156926070#0" to="777745825"/>
    <trip id="veh117" type="veh_passenger" depart="340.01" departLane="best" departSpeed="max" from="314486958#0" to="777745825"/>
    <trip id="veh118" type="veh_passenger" depart="342.92" departLane="best" departSpeed="max" from="156926070#0" to="1056048099"/>
    <trip id="veh119" type="veh_passenger" depart="345.83" departLane="best" departSpeed="max" from="314486958#0" to="777745825"/>
    <trip id="veh120" type="veh_passenger" depart="348.73" departLane="best" from="314486949#0" to="314486954"/>
    <trip id="veh121" type="veh_passenger" depart="351.64" departLane="best" departSpeed="max" from="1091118287" to="777745825"/>
    <trip id="veh122" type="veh_passenger" depart="354.54" departLane="best" departSpeed="max" from="314486958#0" to="777745825"/>
    <trip id="veh123" type="veh_passenger" depart="357.45" departLane="best" departSpeed="max" from="314486958#0" to="777745825"/>
    <trip id="veh124" type="veh_passenger" depart="360.36" departLane="best" departSpeed="max" from="156926070#0" to="777745825"/>
    <trip id="veh125" type="veh_passenger" depart="363.26" departLane="best" departSpeed="max" from="314486958#0" to="777745825"/>
    <trip id="veh126" type="veh_passenger" depart="366.17" departLane="best" departSpeed="max" from="314486958#0" to="156875202#0"/>
    <trip id="veh127" type="veh_passenger" depart="369.07" departLane="best" departSpeed="max" from="314486958#0" to="1056048099"/>
    <trip id="veh128" type="veh_passenger" depart="371.98" departLane="best" departSpeed="max" from="314486958#0" to="777745825"/>
    <trip id="veh129" type="veh_passenger" depart="374.89" departLane="best" departSpeed="max" from="1091118287" to="777745825"/>
    <trip id="veh130" type="veh_passenger" depart="377.79" departLane="best" departSpeed="max" from="314486951#0" to="156875202#0"/>
    <trip id="veh131" type="veh_passenger" depart="380.70" departLane="best" departSpeed="max" from="314486958#0" to="156875202#0"/>
    <trip id="veh132" type="veh_passenger" depart="383.61" departLane="best" departSpeed="max" from="1091118287" to="1056048099"/>
    <trip id="veh133" type="veh_passenger" depart="386.51" departLane="best" departSpeed="max" from="156926070#0" to="777745825"/>
    <trip id="veh134" type="veh_passenger" depart="389.42" departLane="best" departSpeed="max" from="314486958#0" to="156875202#0"/>
    <trip id="veh135" type="veh_passenger" depart="392.32" departLane="best" departSpeed="max" from="314486951#0" to="156875202#0"/>
    <trip id="veh136" type="veh_passenger" depart="395.23" departLane="best" departSpeed="max" from="314486958#0" to="314486954"/>
    <trip id="veh137" type="veh_passenger" depart="398.14" departLane="best" departSpeed="max" from="314486958#0" to="1056048099"/>
    <trip id="veh138" type="veh_passenger" depart="401.04" departLane="best" departSpeed="max" from="314486958#0" to="1056048099"/>
    <trip id="veh139" type="veh_passenger" depart="403.95" departLane="best" departSpeed="max" from="314486958#0" to="156875202#0"/>
    <trip id="veh140" type="veh_passenger" depart="406.85" departLane="best" departSpeed="max" from="1091118287" to="314486949#0"/>
    <trip id="veh141" type="veh_passenger" depart="409.76" departLane="best" departSpeed="max" from="314486958#0" to="156875202#0"/>
    <trip id="veh142" type="veh_passenger" depart="412.67" departLane="best" departSpeed="max" from="314486951#0" to="314486954"/>
    <trip id="veh143" type="veh_passenger" depart="415.57" departLane="best" departSpeed="max" from="156926070#0" to="314486954"/>
    <trip id="veh144" type="veh_passenger" depart="418.48" departLane="best" departSpeed="max" from="156926070#0" to="314486954"/>
    <trip id="veh145" type="veh_passenger" depart="421.38" departLane="best" from="1130867319" to="777745825"/>
    <trip id="veh146" type="veh_passenger" depart="424.29" departLane="best" departSpeed="max" from="314486951#0" to="314486954"/>
    <trip id="veh147" type="veh_passenger" depart="427.20" departLane="best" departSpeed="max" from="314486958#0" to="314486954"/>
    <trip id="veh148" type="veh_passenger" depart="430.10" departLane="best" departSpeed="max" from="156926070#0" to="1056048099"/>
    <trip id="veh149" type="veh_passenger" depart="433.01" departLane="best" from="314486951#1" to="156875202#0"/>
    <trip id="veh150" type="veh_passenger" depart="435.91" departLane="best" departSpeed="max" from="156926070#0" to="777745825"/>
    <trip id="veh151" type="veh_passenger" depart="438.82" departLane="best" departSpeed="max" from="314486958#0" to="156875202#0"/>
    <trip id="veh152" type="veh_passenger" depart="441.73" departLane="best" departSpeed="max" from="156926070#0" to="25049105#0"/>
    <trip id="veh154" type="veh_passenger" depart="447.54" departLane="best" departSpeed="max" from="314486958#0" to="314486954"/>
    <trip id="veh155" type="veh_passenger" depart="450.45" departLane="best" departSpeed="max" from="314486958#0" to="314486954"/>
    <trip id="veh156" type="veh_passenger" depart="453.35" departLane="best" departSpeed="max" from="156926070#0" to="314486954"/>
    <trip id="veh157" type="veh_passenger" depart="456.26" departLane="best" from="1130867319" to="156875202#0"/>
    <trip id="veh158" type="veh_passenger" depart="459.16" departLane="best" from="314486950#0" to="314486954"/>
    <trip id="veh159" type="veh_passenger" depart="462.07" departLane="best" departSpeed="max" from="314486951#0" to="777745825"/>
    <trip id="veh160" type="veh_passenger" depart="464.98" departLane="best" departSpeed="max" from="314486958#0" to="1056048099"/>
    <trip id="veh161" type="veh_passenger" depart="467.88" departLane="best" departSpeed="max" from="314486951#0" to="156875202#0"/>
    <trip id="veh162" type="veh_passenger" depart="470.79" departLane="best" departSpeed="max" from="314486958#0" to="314486954"/>
    <trip id="veh163" type="veh_passenger" depart="473.69" departLane="best" from="314486951#1" to="156875202#0"/>
    <trip id="veh164" type="veh_passenger" depart="476.60" departLane="best" departSpeed="max" from="1091118287" to="1056048099"/>
    <trip id="veh165" type="veh_passenger" depart="479.51" departLane="best" departSpeed="max" from="156926070#0" to="314486951#1"/>
    <trip id="veh166" type="veh_passenger" depart="482.41" departLane="best" departSpeed="max" from="314486958#0" to="1056048099"/>
    <trip id="veh167" type="veh_passenger" depart="485.32" departLane="best" from="314486949#0" to="314486954"/>
    <trip id="veh168" type="veh_passenger" depart="488.22" departLane="best" departSpeed="max" from="314486951#0" to="156875202#0"/>
    <trip id="veh169" type="veh_passenger" depart="491.13" departLane="best" departSpeed="max" from="314486958#0" to="314486954"/>
    <trip id="veh170" type="veh_passenger" depart="494.04" departLane="best" departSpeed="max" from="1091118287" to="777745825"/>
    <trip id="veh171" type="veh_passenger" depart="496.94" departLane="best" departSpeed="max" from="156926070#0" to="777745825"/>
    <trip id="veh172" type="veh_passenger" depart="499.85" departLane="best" departSpeed="max" from="314486951#0" to="777745825"/>
    <trip id="veh173" type="veh_passenger" depart="502.76" departLane="best" departSpeed="max" from="314486951#0" to="777745825"/>
    <trip id="veh174" type="veh_passenger" depart="505.66" departLane="best" departSpeed="max" from="314486958#0" to="314486954"/>
    <trip id="veh175" type="veh_passenger" depart="508.57" departLane="best" departSpeed="max" from="314486958#0" to="314486954"/>
    <trip id="veh176" type="veh_passenger" depart="511.47" departLane="best" departSpeed="max" from="314486958#0" to="314486954"/>
    <trip id="veh177" type="veh_passenger" depart="514.38" departLane="best" departSpeed="max" from="314486958#0" to="314486954"/>
    <trip id="veh178" type="veh_passenger" depart="517.29" departLane="best" departSpeed="max" from="314486951#0" to="156875202#0"/>
    <trip id="veh179" type="veh_passenger" depart="520.19" departLane="best" departSpeed="max" from="156926070#0" to="314486954"/>
    <trip id="veh180" type="veh_passenger" depart="523.10" departLane="best" departSpeed="max" from="314486958#0" to="314486954"/>
    <trip id="veh181" type="veh_passenger" depart="526.00" departLane="best" departSpeed="max" from="314486951#0" to="156875202#0"/>
    <trip id="veh182" type="veh_passenger" depart="528.91" departLane="best" departSpeed="max" from="1091118287" to="156875202#0"/>
    <trip id="veh183" type="veh_passenger" depart="531.82" departLane="best" from="125871020" to="314486954"/>
    <trip id="veh184" type="veh_passenger" depart="534.72" departLane="best" departSpeed="max" from="314486958#0" to="1056048099"/>
    <trip id="veh185" type="veh_passenger" depart="537.63" departLane="best" from="314486949#0" to="314486954"/>
    <trip id="veh186" type="veh_passenger" depart="540.53" departLane="best" from="314486949#2" to="777745825"/>
    <trip id="veh187" type="veh_passenger" depart="543.44" departLane="best" departSpeed="max" from="314486951#0" to="314486954"/>
    <trip id="veh188" type="veh_passenger" depart="546.35" departLane="best" departSpeed="max" from="314486958#0" to="314486954"/>
    <trip id="veh189" type="veh_passenger" depart="549.25" departLane="best" departSpeed="max" from="156926070#0" to="1056048099"/>
    <trip id="veh190" type="veh_passenger" depart="552.16" departLane="best" departSpeed="max" from="156926070#0" to="314486954"/>
    <trip id="veh191" type="veh_passenger" depart="555.06" departLane="best" departSpeed="max" from="314486958#0" to="777745825"/>
    <trip id="veh192" type="veh_passenger" depart="557.97" departLane="best" from="314486949#2" to="314486954"/>
    <trip id="veh193" type="veh_passenger" depart="560.88" departLane="best" departSpeed="max" from="314486951#0" to="314486954"/>
    <trip id="veh194" type="veh_passenger" depart="563.78" departLane="best" departSpeed="max" from="1091118287" to="156875202#0"/>
    <trip id="veh195" type="veh_passenger" depart="566.69" departLane="best" departSpeed="max" from="156926070#0" to="314486954"/>
    <trip id="veh196" type="veh_passenger" depart="569.60" departLane="best" from="25049105#0" to="314486954"/>
    <trip id="veh197" type="veh_passenger" depart="572.50" departLane="best" departSpeed="max" from="1091118287" to="156875202#0"/>
    <trip id="veh198" type="veh_passenger" depart="575.41" departLane="best" departSpeed="max" from="1091118287" to="156875202#0"/>
    <trip id="veh199" type="veh_passenger" depart="578.31" departLane="best" departSpeed="max" from="314486958#0" to="156875202#0"/>
    <trip id="veh200" type="veh_passenger" depart="581.22" departLane="best" departSpeed="max" from="314486958#0" to="777745825"/>
    <trip id="veh201" type="veh_passenger" depart="584.13" departLane="best" departSpeed="max" from="156926070#0" to="1056048099"/>
    <trip id="veh202" type="veh_passenger" depart="587.03" departLane="best" departSpeed="max" from="314486951#0" to="314486954"/>
    <trip id="veh203" type="veh_passenger" depart="589.94" departLane="best" departSpeed="max" from="1091118287" to="1056048099"/>
    <trip id="veh204" type="veh_passenger" depart="592.84" departLane="best" departSpeed="max" from="314486958#0" to="314486954"/>
    <trip id="veh205" type="veh_passenger" depart="595.75" departLane="best" departSpeed="max" from="314486958#0" to="1056048099"/>
    <trip id="veh206" type="veh_passenger" depart="598.66" departLane="best" departSpeed="max" from="314486958#0" to="777745825"/>
    <trip id="veh207" type="veh_passenger" depart="601.56" departLane="best" departSpeed="max" from="1091118287" to="1056048099"/>
    <trip id="veh208" type="veh_passenger" depart="604.47" departLane="best" departSpeed="max" from="156926070#0" to="314486954"/>
    <trip id="veh209" type="veh_passenger" depart="607.37" departLane="best" departSpeed="max" from="314486958#0" to="156875202#0"/>
    <trip id="veh210" type="veh_passenger" depart="610.28" departLane="best" departSpeed="max" from="314486958#0" to="1056048099"/>
    <trip id="veh211" type="veh_passenger" depart="613.19" departLane="best" departSpeed="max" from="314486958#0" to="314486954"/>
    <trip id="veh212" type="veh_passenger" depart="616.09" departLane="best" departSpeed="max" from="314486958#0" to="314486954"/>
    <trip id="veh213" type="veh_passenger" depart="619.00" departLane="best" departSpeed="max" from="314486958#0" to="156875202#0"/>
    <trip id="veh214" type="veh_passenger" depart="621.91" departLane="best" from="314486950#0" to="156875202#0"/>
    <trip id="veh215" type="veh_passenger" depart="624.81" departLane="best" departSpeed="max" from="314486951#0" to="156875202#0"/>
    <trip id="veh216" type="veh_passenger" depart="627.72" departLane="best" departSpeed="max" from="314486958#0" to="777745825"/>
    <trip id="veh217" type="veh_passenger" depart="630.62" departLane="best" departSpeed="max" from="1091118287" to="777745825"/>
    <trip id="veh218" type="veh_passenger" depart="633.53" departLane="best" departSpeed="max" from="314486951#0" to="777745825"/>
    <trip id="veh219" type="veh_passenger" depart="636.44" departLane="best" departSpeed="max" from="314486958#0" to="777745825"/>
    <trip id="veh220" type="veh_passenger" depart="639.34" departLane="best" departSpeed="max" from="156926070#0" to="777745825"/>
    <trip id="veh221" type="veh_passenger" depart="642.25" departLane="best" from="314486950#0" to="314486954"/>