<?xml version="1.0" encoding="UTF-8"?>

<configuration>
    <input>
        <net-file value="map.net.xml"/>
        <route-files value="routes.rou.xml"/>
    </input>
</configuration>
